IEEE9Bus Model/FPI Method/Test_system-2/ckt24_unbalance/IEEE9Nodeckt_VLN_Node.Txt

LINE-GROUND and LINE-LINE VOLTAGES BY BUS & NODE

Bus  Node    VLN (kV)   Angle      pu     Base kV    Node-Node   VLL (kV)  Angle      pu

BUS1 1       9.9064 /_    0.0    1.0399    16.500        1-2     17.158 /_   30.0    1.0399
   - 2       9.9064 /_ -120.0    1.0399    16.500        2-3     17.158 /_  -90.0    1.0399
   - 3       9.9064 /_  120.0    1.0399    16.500        3-1     17.158 /_  150.0    1.0399
BUS2 1       10.656 /_    8.4    1.0254    18.000        1-2     18.457 /_   38.4    1.0254
   - 2       10.656 /_ -111.6    1.0254    18.000        2-3     18.457 /_  -81.6    1.0254
   - 3       10.656 /_  128.4    1.0254    18.000        3-1     18.457 /_  158.4    1.0254
BUS3 1       8.1636 /_    4.1    1.0246    13.800        1-2      14.14 /_   34.1    1.0246
   - 2       8.1636 /_ -115.9    1.0246    13.800        2-3      14.14 /_  -85.9    1.0246
   - 3       8.1636 /_  124.1    1.0246    13.800        3-1      14.14 /_  154.1    1.0246
BUS7 1       135.86 /_    2.9    1.0231   230.000        1-2     235.32 /_   32.9    1.0231
   - 2       135.86 /_ -117.1    1.0231   230.000        2-3     235.32 /_  -87.1    1.0231
   - 3       135.86 /_  122.9    1.0231   230.000        3-1     235.32 /_  152.9    1.0231
BUS9 1       136.51 /_    1.4     1.028   230.000        1-2     236.44 /_   31.4     1.028
   - 2       136.51 /_ -118.6     1.028   230.000        2-3     236.44 /_  -88.6     1.028
   - 3       136.51 /_  121.4     1.028   230.000        3-1     236.44 /_  151.4     1.028
BUS4 1        135.5 /_   -2.2    1.0204   230.000        1-2      234.7 /_   27.8    1.0204
   - 2        135.5 /_ -122.2    1.0204   230.000        2-3      234.7 /_  -92.2    1.0204
   - 3        135.5 /_  117.8    1.0204   230.000        3-1      234.7 /_  147.8    1.0204
BUS8 1       134.49 /_    0.4    1.0128   230.000        1-2     232.95 /_   30.4    1.0128
   - 2       134.49 /_ -119.6    1.0128   230.000        2-3     232.95 /_  -89.6    1.0128
   - 3       134.49 /_  120.4    1.0128   230.000        3-1     232.95 /_  150.4    1.0128
BUS5 1       131.78 /_   -3.7   0.99242   230.000        1-2     228.26 /_   26.3   0.99242
   - 2       131.78 /_ -123.7   0.99242   230.000        2-3     228.26 /_  -93.7   0.99242
   - 3       131.78 /_  116.3   0.99242   230.000        3-1     228.26 /_  146.3   0.99242
BUS6 1       133.58 /_   -3.5    1.0059   230.000        1-2     231.36 /_   26.5    1.0059
   - 2       133.58 /_ -123.5    1.0059   230.000        2-3     231.36 /_  -93.5    1.0059
   - 3       133.58 /_  116.5    1.0059   230.000        3-1     231.36 /_  146.5    1.0059
